Circuit: * U:\tp\Capteur\mesure_1Gohm_analogique.asc

.OP point found by inspection.

Date: Tue Jan 28 09:04:46 2025
Total elapsed time: 0.053 seconds.

tnom = 27
temp = 27
method = modified trap
totiter = 2180
traniter = 2180
tranpoints = 1091
accept = 1078
rejected = 13
matrix size = 3
fillins = 0
solver = Normal
Avg thread counts: 1.6/2.1/2.2/1.6
Matrix Compiler1:       3 opcodes  0.0/[0.0]/0.1
Matrix Compiler2: 175 bytes object code size  0.0/0.1/[0.0]

