Circuit: * U:\tp\Capteur\Draft2.asc

Direct Newton iteration for .op point succeeded.

Date: Tue Jan 28 09:52:39 2025
Total elapsed time: 0.099 seconds.

tnom = 27
temp = 27
method = trap
totiter = 22
traniter = 0
tranpoints = 0
accept = 0
rejected = 0
matrix size = 11
fillins = 7
solver = Normal
Avg thread counts: 4.0/0.0/4.0/2.4
Matrix Compiler1:      36 opcodes
Matrix Compiler2: 993 bytes object code size
